/*--------------------------------*- C++ -*----------------------------------*\
| =========                 |                                                 |
| \\      /  F ield         | foam-extend: Open Source CFD                    |
|  \\    /   O peration     | Version:     4.0                                |
|   \\    /    A nd          | Web:         http://www.foam-extend.org         |
|    \\/     M anipulation  |                                                 |
\*---------------------------------------------------------------------------*/
FoamFile
{
    version     2.0;
    format      ascii;
    class       dictionary;
    object      blockMeshDict;
}
// * * * * * * * * * * * * * * * * * * * * * * * * * * * * * * * * * * * * * //

convertToMeters 1.0;

// Compact single-pulse domain.
// Coordinate convention before transformPoints in job.sh:
//   x = width  = 1200 um
//   y = length = 1000 um, welding/scan direction after rotation
//   z = depth  = 1500 um, plate/gas thickness direction after rotation

vertices
(
    // z = 0
    (0          0          0)         // 0
    (0.35e-3   0          0)         // 1
    (0.85e-3   0          0)         // 2
    (1.2e-3    0          0)         // 3
    (0          1.0e-3    0)         // 4
    (0.35e-3   1.0e-3    0)         // 5
    (0.85e-3   1.0e-3    0)         // 6
    (1.2e-3    1.0e-3    0)         // 7

    // z = 700 um, coarse/dense solid transition
    (0          0          0.7e-3)   // 8
    (0.35e-3   0          0.7e-3)   // 9
    (0.85e-3   0          0.7e-3)   // 10
    (1.2e-3    0          0.7e-3)   // 11
    (0          1.0e-3    0.7e-3)   // 12
    (0.35e-3   1.0e-3    0.7e-3)   // 13
    (0.85e-3   1.0e-3    0.7e-3)   // 14
    (1.2e-3    1.0e-3    0.7e-3)   // 15

    // z = 1200 um, solid/gas interface
    (0          0          1.2e-3)   // 16
    (0.35e-3   0          1.2e-3)   // 17
    (0.85e-3   0          1.2e-3)   // 18
    (1.2e-3    0          1.2e-3)   // 19
    (0          1.0e-3    1.2e-3)   // 20
    (0.35e-3   1.0e-3    1.2e-3)   // 21
    (0.85e-3   1.0e-3    1.2e-3)   // 22
    (1.2e-3    1.0e-3    1.2e-3)   // 23

    // z = 1400 um, dense/coarse gas transition
    (0          0          1.4e-3)   // 24
    (0.35e-3   0          1.4e-3)   // 25
    (0.85e-3   0          1.4e-3)   // 26
    (1.2e-3    0          1.4e-3)   // 27
    (0          1.0e-3    1.4e-3)   // 28
    (0.35e-3   1.0e-3    1.4e-3)   // 29
    (0.85e-3   1.0e-3    1.4e-3)   // 30
    (1.2e-3    1.0e-3    1.4e-3)   // 31

    // z = 1500 um, top of gas
    (0          0          1.5e-3)   // 32
    (0.35e-3   0          1.5e-3)   // 33
    (0.85e-3   0          1.5e-3)   // 34
    (1.2e-3    0          1.5e-3)   // 35
    (0          1.0e-3    1.5e-3)   // 36
    (0.35e-3   1.0e-3    1.5e-3)   // 37
    (0.85e-3   1.0e-3    1.5e-3)   // 38
    (1.2e-3    1.0e-3    1.5e-3)   // 39
);

blocks
(
    // Single-pulse mesh:
    //   x = 0-350 um and 850-1200 um: coarse side margins
    //   x = 350-850 um: refined weld zone around laser center
    //   z = 0-700 um: coarse lower solid
    //   z = 700-1200 um: dense upper solid
    //   z = 1200-1400 um: dense lower gas
    //   z = 1400-1500 um: coarse upper gas
    // Active 32-core mesh:
    //   54 x 80 x 111 = 479,520 cells total, about 14,985 cells/core on 32 cores.
    // hex (0 1 5 4 8 9 13 12)        (8 80 35) simpleGrading (1 1 1)
    // hex (1 2 6 5 9 10 14 13)       (38 80 35) simpleGrading (1 1 1)
    // hex (2 3 7 6 10 11 15 14)      (8 80 35) simpleGrading (1 1 1)
    // hex (8 9 13 12 16 17 21 20)    (8 80 51) simpleGrading (1 1 1)
    // hex (9 10 14 13 17 18 22 21)   (38 80 51) simpleGrading (1 1 1)
    // hex (10 11 15 14 18 19 23 22)  (8 80 51) simpleGrading (1 1 1)
    // hex (16 17 21 20 24 25 29 28)  (8 80 20) simpleGrading (1 1 1)
    // hex (17 18 22 21 25 26 30 29)  (38 80 20) simpleGrading (1 1 1)
    // hex (18 19 23 22 26 27 31 30)  (8 80 20) simpleGrading (1 1 1)
    // hex (24 25 29 28 32 33 37 36)  (8 80 5) simpleGrading (1 1 1)
    // hex (25 26 30 29 33 34 38 37)  (38 80 5) simpleGrading (1 1 1)
    // hex (26 27 31 30 34 35 39 38)  (8 80 5) simpleGrading (1 1 1)

    //medium mesh for 32 cores
    // hex (0 1 5 4 8 9 13 12)        (6 101 11) simpleGrading (1 1 1)
    // hex (1 2 6 5 9 10 14 13)       (42 101 11) simpleGrading (1 1 1)
    // hex (2 3 7 6 10 11 15 14)      (6 101 11) simpleGrading (1 1 1)
    // hex (8 9 13 12 16 17 21 20)    (6 101 32) simpleGrading (1 1 1)
    // hex (9 10 14 13 17 18 22 21)   (42 101 32) simpleGrading (1 1 1)
    // hex (10 11 15 14 18 19 23 22)  (6 101 32) simpleGrading (1 1 1)
    // hex (16 17 21 20 24 25 29 28)  (6 101 13) simpleGrading (1 1 1)
    // hex (17 18 22 21 25 26 30 29)  (42 101 13) simpleGrading (1 1 1)
    // hex (18 19 23 22 26 27 31 30)  (6 101 13) simpleGrading (1 1 1)
    // hex (24 25 29 28 32 33 37 36)  (6 101 3) simpleGrading (1 1 1)
    // hex (25 26 30 29 33 34 38 37)  (42 101 3) simpleGrading (1 1 1)
    // hex (26 27 31 30 34 35 39 38)  (6 101 3) simpleGrading (1 1 1)


    //coarse mesh 
    hex (0 1 5 4 8 9 13 12)        (4 80 8) simpleGrading (1 1 1)
    hex (1 2 6 5 9 10 14 13)       (28 80 8) simpleGrading (1 1 1)
    hex (2 3 7 6 10 11 15 14)      (4 80 8) simpleGrading (1 1 1)
    hex (8 9 13 12 16 17 21 20)    (4 80 24) simpleGrading (1 1 1)
    hex (9 10 14 13 17 18 22 21)   (28 80 24) simpleGrading (1 1 1)
    hex (10 11 15 14 18 19 23 22)  (4 80 24) simpleGrading (1 1 1)
    hex (16 17 21 20 24 25 29 28)  (4 80 10) simpleGrading (1 1 1)
    hex (17 18 22 21 25 26 30 29)  (28 80 10) simpleGrading (1 1 1)
    hex (18 19 23 22 26 27 31 30)  (4 80 10) simpleGrading (1 1 1)
    hex (24 25 29 28 32 33 37 36)  (4 80 2) simpleGrading (1 1 1)
    hex (25 26 30 29 33 34 38 37)  (28 80 2) simpleGrading (1 1 1)
    hex (26 27 31 30 34 35 39 38)  (4 80 2) simpleGrading (1 1 1)
);

edges
(
);

boundary
(
    back
    {
        type patch;
        faces
        (
            (0 8 12 4)
            (8 16 20 12)
            (16 24 28 20)
            (24 32 36 28)
        );
    }
    front
    {
        type patch;
        faces
        (
            (3 7 15 11)
            (11 15 23 19)
            (19 23 31 27)
            (27 31 39 35)
        );
    }
    leftWall
    {
        type patch;
        faces
        (
            (0 1 9 8)
            (1 2 10 9)
            (2 3 11 10)
            (8 9 17 16)
            (9 10 18 17)
            (10 11 19 18)
            (16 17 25 24)
            (17 18 26 25)
            (18 19 27 26)
            (24 25 33 32)
            (25 26 34 33)
            (26 27 35 34)
        );
    }
    rightWall
    {
        type patch;
        faces
        (
            (4 12 13 5)
            (5 13 14 6)
            (6 14 15 7)
            (12 20 21 13)
            (13 21 22 14)
            (14 22 23 15)
            (20 28 29 21)
            (21 29 30 22)
            (22 30 31 23)
            (28 36 37 29)
            (29 37 38 30)
            (30 38 39 31)
        );
    }
    topWall
    {
        type patch;
        faces
        (
            (32 33 37 36)
            (33 34 38 37)
            (34 35 39 38)
        );
    }
    bottomWall
    {
        type wall;
        faces
        (
            (0 4 5 1)
            (1 5 6 2)
            (2 6 7 3)
        );
    }
);

mergePatchPairs
(
);

// ************************************************************************* //
