/*--------------------------------*- C++ -*----------------------------------*\
| =========                 |                                                 |
| \\      /  F ield         | foam-extend: Open Source CFD                    |
|  \\    /   O peration     | Version:     4.0                                |
|   \\    /    A nd          | Web:         http://www.foam-extend.org         |
|    \\/     M anipulation  |                                                 |
\*---------------------------------------------------------------------------*/
FoamFile
{
    version     2.0;
    format      ascii;
    class       dictionary;
    object      blockMeshDict;
}
// * * * * * * * * * * * * * * * * * * * * * * * * * * * * * * * * * * * * * //

convertToMeters 1.0;

vertices
(
    (0          0          0)         // 0
    (0.0008    0          0)         // 1
    (0.0008    0.002    0)         // 2
    (0          0.002    0)         // 3
    (0          0          0.00062)   // 4
    (0.0008    0          0.00062)   // 5
    (0.0008    0.002    0.00062)   // 6
    (0          0.002    0.00062)   // 7
);blocks
(
    hex (0 1 2 3 4 5 6 7) (80 200 61) simpleGrading (1 1 1)
);edges
(
);

boundary
(
    back
    {
        type patch;
        faces ((0 4 7 3));
    }
    front
    {
        type patch;
        faces ((1 2 6 5));
    }
    leftWall
    {
        type patch;
        faces ((0 1 5 4));
    }
    rightWall
    {
        type patch;
        faces ((3 7 6 2));
    }
    topWall
    {
        type patch;
        faces ((4 5 6 7));
    }
    bottomWall
    {
        type wall;
        faces ((0 3 2 1));
    }
);

mergePatchPairs
(
);

// ************************************************************************* //

