FoamFile
{
    version     2.0;
    format      ascii;
    class       dictionary;
    object      decomposeParDict;
}
numberOfSubdomains 64;
method          scotch;

simpleCoeffs
{
    n               (4 4 4);
    delta           0.001;
}

distributed     no;
roots           ();
